Circuit: * AD8226 SPICE Macro-model

Fatal Error: No analysis request found.
