Circuit: **********************

WARNING: Node 13 is floating.

Direct Newton iteration for .op point succeeded.

Date: Thu Mar 07 21:17:13 2019
Total elapsed time: 1.617 seconds.

tnom = 27
temp = 27
method = modified trap
totiter = 40047
traniter = 40034
tranpoints = 20018
accept = 20018
rejected = 0
matrix size = 96
fillins = 47
solver = Normal
Thread vector: 5.9/3.8[2] 2.6/2.0[2] 1.3/1.5[1] 0.4/1.0[1]  2592/500
Matrix Compiler1: 4.97 KB object code size  2.3/1.3/[0.3]
Matrix Compiler2: 7.83 KB object code size  1.2/2.1/[0.6]

