Circuit: **********************

WARNING: Less than two connections to node 5.  This node is used by V:AMP:OSO.
Direct Newton iteration for .op point succeeded.

Date: Thu Mar 07 22:46:34 2019
Total elapsed time: 8.450 seconds.

tnom = 27
temp = 27
method = modified trap
totiter = 1000047
traniter = 1000034
tranpoints = 500018
accept = 500018
rejected = 0
matrix size = 87
fillins = 21
solver = Normal
Thread vector: 4.3/3.7[2] 2.5/2.1[2] 1.5/2.0[1] 0.3/1.0[1]  2592/500
Matrix Compiler1: 3.35 KB object code size  1.7/1.1/[0.3]
Matrix Compiler2: 6.67 KB object code size  1.1/1.9/[0.4]

